
/clear
/prep7


! define arguments (useful for creating function)
e=2e5 ! E
nu=0.3 ! poissons ratio
inner_radius= 175
outer_radius= 200
pressure=100 !internal pressure
element_size =1.4 ! element size


! Execute below lines within a function to execute in a loop
et,1,182,,,2

pcirc,inner_radius,outer_radius,0,90
cm,pipe_profile,area
mp,ex,1,e
mp,prxy,1,nu


aesize,all,element_size
mshape,0,2D
mshkey,1
cmsel,s,pipe_profile
amesh,all


nsel,s,loc,x
cm,x_fixed,nodes
nsel,s,loc,y,
cm,y_fixed,node

lsel,s,radius,,inner_radius
cm,pressure_edge,line
allsel,all,all

/solu
antype,static
d,x_fixed,ux
d,y_fixed,uy

csys,1
sfl,pressure_edge,pres,pressure
allsel,all,all
solve
fini

/post1
set,1,1
plnsol,s,eqv